
---------- Begin Simulation Statistics ----------
simSeconds                                   0.015108                       # Number of seconds simulated (Second)
simTicks                                  15108497500                       # Number of ticks simulated (Tick)
finalTick                                 15108497500                       # Number of ticks from beginning of simulation (restored from checkpoints and never reset) (Tick)
simFreq                                  1000000000000                       # The number of ticks per simulated second ((Tick/Second))
hostSeconds                                    176.34                       # Real time elapsed on the host (Second)
hostTickRate                                 85679571                       # The number of ticks simulated per host second (ticks/s) ((Tick/Second))
hostMemory                                    8541912                       # Number of bytes of host memory used (Byte)
simInsts                                     34258606                       # Number of instructions simulated (Count)
simOps                                       47957048                       # Number of ops (including micro ops) simulated (Count)
hostInstRate                                   194279                       # Simulator instruction rate (inst/s) ((Count/Second))
hostOpRate                                     271962                       # Simulator op (including micro ops) rate (op/s) ((Count/Second))
system.clk_domain.clock                          1000                       # Clock period in ticks (Tick)
system.cpu.numCycles                         30216996                       # Number of cpu cycles simulated (Cycle)
system.cpu.numWorkItemsStarted                      0                       # Number of work items this cpu started (Count)
system.cpu.numWorkItemsCompleted                    0                       # Number of work items this cpu completed (Count)
system.cpu.instsAdded                        47979036                       # Number of instructions added to the IQ (excludes non-spec) (Count)
system.cpu.nonSpecInstsAdded                      289                       # Number of non-speculative instructions added to the IQ (Count)
system.cpu.instsIssued                       52078915                       # Number of instructions issued (Count)
system.cpu.squashedInstsIssued                     46                       # Number of squashed instructions issued (Count)
system.cpu.squashedInstsExamined                22276                       # Number of squashed instructions iterated over during squash; mainly for profiling (Count)
system.cpu.squashedOperandsExamined             47840                       # Number of squashed operands that are examined and possibly removed from graph (Count)
system.cpu.squashedNonSpecRemoved                  50                       # Number of squashed non-spec instructions that were removed (Count)
system.cpu.numIssuedDist::samples            30172401                       # Number of insts issued each cycle (Count)
system.cpu.numIssuedDist::mean               1.726045                       # Number of insts issued each cycle (Count)
system.cpu.numIssuedDist::stdev              1.388237                       # Number of insts issued each cycle (Count)
system.cpu.numIssuedDist::underflows                0      0.00%      0.00% # Number of insts issued each cycle (Count)
system.cpu.numIssuedDist::0                   6870967     22.77%     22.77% # Number of insts issued each cycle (Count)
system.cpu.numIssuedDist::1                   6868652     22.76%     45.54% # Number of insts issued each cycle (Count)
system.cpu.numIssuedDist::2                   9567194     31.71%     77.25% # Number of insts issued each cycle (Count)
system.cpu.numIssuedDist::3                   2759139      9.14%     86.39% # Number of insts issued each cycle (Count)
system.cpu.numIssuedDist::4                   2738238      9.08%     95.47% # Number of insts issued each cycle (Count)
system.cpu.numIssuedDist::5                   1365118      4.52%     99.99% # Number of insts issued each cycle (Count)
system.cpu.numIssuedDist::6                      1951      0.01%    100.00% # Number of insts issued each cycle (Count)
system.cpu.numIssuedDist::7                       926      0.00%    100.00% # Number of insts issued each cycle (Count)
system.cpu.numIssuedDist::8                       216      0.00%    100.00% # Number of insts issued each cycle (Count)
system.cpu.numIssuedDist::overflows                 0      0.00%    100.00% # Number of insts issued each cycle (Count)
system.cpu.numIssuedDist::min_value                 0                       # Number of insts issued each cycle (Count)
system.cpu.numIssuedDist::max_value                 8                       # Number of insts issued each cycle (Count)
system.cpu.numIssuedDist::total              30172401                       # Number of insts issued each cycle (Count)
system.cpu.statFuBusy::No_OpClass                   0      0.00%      0.00% # attempts to use FU when none available (Count)
system.cpu.statFuBusy::IntAlu                      25      1.08%      1.08% # attempts to use FU when none available (Count)
system.cpu.statFuBusy::IntMult                      0      0.00%      1.08% # attempts to use FU when none available (Count)
system.cpu.statFuBusy::IntDiv                       0      0.00%      1.08% # attempts to use FU when none available (Count)
system.cpu.statFuBusy::FloatAdd                     0      0.00%      1.08% # attempts to use FU when none available (Count)
system.cpu.statFuBusy::FloatCmp                     0      0.00%      1.08% # attempts to use FU when none available (Count)
system.cpu.statFuBusy::FloatCvt                     0      0.00%      1.08% # attempts to use FU when none available (Count)
system.cpu.statFuBusy::FloatMult                    0      0.00%      1.08% # attempts to use FU when none available (Count)
system.cpu.statFuBusy::FloatMultAcc                 0      0.00%      1.08% # attempts to use FU when none available (Count)
system.cpu.statFuBusy::FloatDiv                     0      0.00%      1.08% # attempts to use FU when none available (Count)
system.cpu.statFuBusy::FloatMisc                    0      0.00%      1.08% # attempts to use FU when none available (Count)
system.cpu.statFuBusy::FloatSqrt                    0      0.00%      1.08% # attempts to use FU when none available (Count)
system.cpu.statFuBusy::SimdAdd                      0      0.00%      1.08% # attempts to use FU when none available (Count)
system.cpu.statFuBusy::SimdAddAcc                   0      0.00%      1.08% # attempts to use FU when none available (Count)
system.cpu.statFuBusy::SimdAlu                      0      0.00%      1.08% # attempts to use FU when none available (Count)
system.cpu.statFuBusy::SimdCmp                      0      0.00%      1.08% # attempts to use FU when none available (Count)
system.cpu.statFuBusy::SimdCvt                      0      0.00%      1.08% # attempts to use FU when none available (Count)
system.cpu.statFuBusy::SimdMisc                     0      0.00%      1.08% # attempts to use FU when none available (Count)
system.cpu.statFuBusy::SimdMult                     0      0.00%      1.08% # attempts to use FU when none available (Count)
system.cpu.statFuBusy::SimdMultAcc                  0      0.00%      1.08% # attempts to use FU when none available (Count)
system.cpu.statFuBusy::SimdShift                    0      0.00%      1.08% # attempts to use FU when none available (Count)
system.cpu.statFuBusy::SimdShiftAcc                 0      0.00%      1.08% # attempts to use FU when none available (Count)
system.cpu.statFuBusy::SimdDiv                      0      0.00%      1.08% # attempts to use FU when none available (Count)
system.cpu.statFuBusy::SimdSqrt                     0      0.00%      1.08% # attempts to use FU when none available (Count)
system.cpu.statFuBusy::SimdFloatAdd                 0      0.00%      1.08% # attempts to use FU when none available (Count)
system.cpu.statFuBusy::SimdFloatAlu                 0      0.00%      1.08% # attempts to use FU when none available (Count)
system.cpu.statFuBusy::SimdFloatCmp                 0      0.00%      1.08% # attempts to use FU when none available (Count)
system.cpu.statFuBusy::SimdFloatCvt                 0      0.00%      1.08% # attempts to use FU when none available (Count)
system.cpu.statFuBusy::SimdFloatDiv                 0      0.00%      1.08% # attempts to use FU when none available (Count)
system.cpu.statFuBusy::SimdFloatMisc                0      0.00%      1.08% # attempts to use FU when none available (Count)
system.cpu.statFuBusy::SimdFloatMult                0      0.00%      1.08% # attempts to use FU when none available (Count)
system.cpu.statFuBusy::SimdFloatMultAcc             0      0.00%      1.08% # attempts to use FU when none available (Count)
system.cpu.statFuBusy::SimdFloatSqrt                0      0.00%      1.08% # attempts to use FU when none available (Count)
system.cpu.statFuBusy::SimdReduceAdd                0      0.00%      1.08% # attempts to use FU when none available (Count)
system.cpu.statFuBusy::SimdReduceAlu                0      0.00%      1.08% # attempts to use FU when none available (Count)
system.cpu.statFuBusy::SimdReduceCmp                0      0.00%      1.08% # attempts to use FU when none available (Count)
system.cpu.statFuBusy::SimdFloatReduceAdd            0      0.00%      1.08% # attempts to use FU when none available (Count)
system.cpu.statFuBusy::SimdFloatReduceCmp            0      0.00%      1.08% # attempts to use FU when none available (Count)
system.cpu.statFuBusy::SimdAes                      0      0.00%      1.08% # attempts to use FU when none available (Count)
system.cpu.statFuBusy::SimdAesMix                   0      0.00%      1.08% # attempts to use FU when none available (Count)
system.cpu.statFuBusy::SimdSha1Hash                 0      0.00%      1.08% # attempts to use FU when none available (Count)
system.cpu.statFuBusy::SimdSha1Hash2                0      0.00%      1.08% # attempts to use FU when none available (Count)
system.cpu.statFuBusy::SimdSha256Hash               0      0.00%      1.08% # attempts to use FU when none available (Count)
system.cpu.statFuBusy::SimdSha256Hash2              0      0.00%      1.08% # attempts to use FU when none available (Count)
system.cpu.statFuBusy::SimdShaSigma2                0      0.00%      1.08% # attempts to use FU when none available (Count)
system.cpu.statFuBusy::SimdShaSigma3                0      0.00%      1.08% # attempts to use FU when none available (Count)
system.cpu.statFuBusy::SimdPredAlu                  0      0.00%      1.08% # attempts to use FU when none available (Count)
system.cpu.statFuBusy::MemRead                   1353     58.50%     59.58% # attempts to use FU when none available (Count)
system.cpu.statFuBusy::MemWrite                   935     40.42%    100.00% # attempts to use FU when none available (Count)
system.cpu.statFuBusy::FloatMemRead                 0      0.00%    100.00% # attempts to use FU when none available (Count)
system.cpu.statFuBusy::FloatMemWrite                0      0.00%    100.00% # attempts to use FU when none available (Count)
system.cpu.statFuBusy::IprAccess                    0      0.00%    100.00% # attempts to use FU when none available (Count)
system.cpu.statFuBusy::InstPrefetch                 0      0.00%    100.00% # attempts to use FU when none available (Count)
system.cpu.statIssuedInstType_0::No_OpClass           11      0.00%      0.00% # Number of instructions issued per FU type, per thread (Count)
system.cpu.statIssuedInstType_0::IntAlu      26042624     50.01%     50.01% # Number of instructions issued per FU type, per thread (Count)
system.cpu.statIssuedInstType_0::IntMult           15      0.00%     50.01% # Number of instructions issued per FU type, per thread (Count)
system.cpu.statIssuedInstType_0::IntDiv             0      0.00%     50.01% # Number of instructions issued per FU type, per thread (Count)
system.cpu.statIssuedInstType_0::FloatAdd            0      0.00%     50.01% # Number of instructions issued per FU type, per thread (Count)
system.cpu.statIssuedInstType_0::FloatCmp            0      0.00%     50.01% # Number of instructions issued per FU type, per thread (Count)
system.cpu.statIssuedInstType_0::FloatCvt            0      0.00%     50.01% # Number of instructions issued per FU type, per thread (Count)
system.cpu.statIssuedInstType_0::FloatMult            0      0.00%     50.01% # Number of instructions issued per FU type, per thread (Count)
system.cpu.statIssuedInstType_0::FloatMultAcc            0      0.00%     50.01% # Number of instructions issued per FU type, per thread (Count)
system.cpu.statIssuedInstType_0::FloatDiv            0      0.00%     50.01% # Number of instructions issued per FU type, per thread (Count)
system.cpu.statIssuedInstType_0::FloatMisc            0      0.00%     50.01% # Number of instructions issued per FU type, per thread (Count)
system.cpu.statIssuedInstType_0::FloatSqrt            0      0.00%     50.01% # Number of instructions issued per FU type, per thread (Count)
system.cpu.statIssuedInstType_0::SimdAdd            0      0.00%     50.01% # Number of instructions issued per FU type, per thread (Count)
system.cpu.statIssuedInstType_0::SimdAddAcc            0      0.00%     50.01% # Number of instructions issued per FU type, per thread (Count)
system.cpu.statIssuedInstType_0::SimdAlu            0      0.00%     50.01% # Number of instructions issued per FU type, per thread (Count)
system.cpu.statIssuedInstType_0::SimdCmp            0      0.00%     50.01% # Number of instructions issued per FU type, per thread (Count)
system.cpu.statIssuedInstType_0::SimdCvt            0      0.00%     50.01% # Number of instructions issued per FU type, per thread (Count)
system.cpu.statIssuedInstType_0::SimdMisc            0      0.00%     50.01% # Number of instructions issued per FU type, per thread (Count)
system.cpu.statIssuedInstType_0::SimdMult            0      0.00%     50.01% # Number of instructions issued per FU type, per thread (Count)
system.cpu.statIssuedInstType_0::SimdMultAcc            0      0.00%     50.01% # Number of instructions issued per FU type, per thread (Count)
system.cpu.statIssuedInstType_0::SimdShift            0      0.00%     50.01% # Number of instructions issued per FU type, per thread (Count)
system.cpu.statIssuedInstType_0::SimdShiftAcc            0      0.00%     50.01% # Number of instructions issued per FU type, per thread (Count)
system.cpu.statIssuedInstType_0::SimdDiv            0      0.00%     50.01% # Number of instructions issued per FU type, per thread (Count)
system.cpu.statIssuedInstType_0::SimdSqrt            0      0.00%     50.01% # Number of instructions issued per FU type, per thread (Count)
system.cpu.statIssuedInstType_0::SimdFloatAdd            0      0.00%     50.01% # Number of instructions issued per FU type, per thread (Count)
system.cpu.statIssuedInstType_0::SimdFloatAlu            0      0.00%     50.01% # Number of instructions issued per FU type, per thread (Count)
system.cpu.statIssuedInstType_0::SimdFloatCmp            0      0.00%     50.01% # Number of instructions issued per FU type, per thread (Count)
system.cpu.statIssuedInstType_0::SimdFloatCvt            0      0.00%     50.01% # Number of instructions issued per FU type, per thread (Count)
system.cpu.statIssuedInstType_0::SimdFloatDiv            0      0.00%     50.01% # Number of instructions issued per FU type, per thread (Count)
system.cpu.statIssuedInstType_0::SimdFloatMisc            0      0.00%     50.01% # Number of instructions issued per FU type, per thread (Count)
system.cpu.statIssuedInstType_0::SimdFloatMult            0      0.00%     50.01% # Number of instructions issued per FU type, per thread (Count)
system.cpu.statIssuedInstType_0::SimdFloatMultAcc            0      0.00%     50.01% # Number of instructions issued per FU type, per thread (Count)
system.cpu.statIssuedInstType_0::SimdFloatSqrt            0      0.00%     50.01% # Number of instructions issued per FU type, per thread (Count)
system.cpu.statIssuedInstType_0::SimdReduceAdd            0      0.00%     50.01% # Number of instructions issued per FU type, per thread (Count)
system.cpu.statIssuedInstType_0::SimdReduceAlu            0      0.00%     50.01% # Number of instructions issued per FU type, per thread (Count)
system.cpu.statIssuedInstType_0::SimdReduceCmp            0      0.00%     50.01% # Number of instructions issued per FU type, per thread (Count)
system.cpu.statIssuedInstType_0::SimdFloatReduceAdd            0      0.00%     50.01% # Number of instructions issued per FU type, per thread (Count)
system.cpu.statIssuedInstType_0::SimdFloatReduceCmp            0      0.00%     50.01% # Number of instructions issued per FU type, per thread (Count)
system.cpu.statIssuedInstType_0::SimdAes            0      0.00%     50.01% # Number of instructions issued per FU type, per thread (Count)
system.cpu.statIssuedInstType_0::SimdAesMix            0      0.00%     50.01% # Number of instructions issued per FU type, per thread (Count)
system.cpu.statIssuedInstType_0::SimdSha1Hash            0      0.00%     50.01% # Number of instructions issued per FU type, per thread (Count)
system.cpu.statIssuedInstType_0::SimdSha1Hash2            0      0.00%     50.01% # Number of instructions issued per FU type, per thread (Count)
system.cpu.statIssuedInstType_0::SimdSha256Hash            0      0.00%     50.01% # Number of instructions issued per FU type, per thread (Count)
system.cpu.statIssuedInstType_0::SimdSha256Hash2            0      0.00%     50.01% # Number of instructions issued per FU type, per thread (Count)
system.cpu.statIssuedInstType_0::SimdShaSigma2            0      0.00%     50.01% # Number of instructions issued per FU type, per thread (Count)
system.cpu.statIssuedInstType_0::SimdShaSigma3            0      0.00%     50.01% # Number of instructions issued per FU type, per thread (Count)
system.cpu.statIssuedInstType_0::SimdPredAlu            0      0.00%     50.01% # Number of instructions issued per FU type, per thread (Count)
system.cpu.statIssuedInstType_0::MemRead     16442859     31.57%     81.58% # Number of instructions issued per FU type, per thread (Count)
system.cpu.statIssuedInstType_0::MemWrite      9593406     18.42%    100.00% # Number of instructions issued per FU type, per thread (Count)
system.cpu.statIssuedInstType_0::FloatMemRead            0      0.00%    100.00% # Number of instructions issued per FU type, per thread (Count)
system.cpu.statIssuedInstType_0::FloatMemWrite            0      0.00%    100.00% # Number of instructions issued per FU type, per thread (Count)
system.cpu.statIssuedInstType_0::IprAccess            0      0.00%    100.00% # Number of instructions issued per FU type, per thread (Count)
system.cpu.statIssuedInstType_0::InstPrefetch            0      0.00%    100.00% # Number of instructions issued per FU type, per thread (Count)
system.cpu.statIssuedInstType_0::total       52078915                       # Number of instructions issued per FU type, per thread (Count)
system.cpu.issueRate                         1.723497                       # Inst issue rate ((Count/Cycle))
system.cpu.fuBusy                                2313                       # FU busy when requested (Count)
system.cpu.fuBusyRate                        0.000044                       # FU busy rate (busy events/executed inst) ((Count/Count))
system.cpu.intInstQueueReads                134332590                       # Number of integer instruction queue reads (Count)
system.cpu.intInstQueueWrites                48002152                       # Number of integer instruction queue writes (Count)
system.cpu.intInstQueueWakeupAccesses        47968352                       # Number of integer instruction queue wakeup accesses (Count)
system.cpu.fpInstQueueReads                         0                       # Number of floating instruction queue reads (Count)
system.cpu.fpInstQueueWrites                        0                       # Number of floating instruction queue writes (Count)
system.cpu.fpInstQueueWakeupAccesses                0                       # Number of floating instruction queue wakeup accesses (Count)
system.cpu.vecInstQueueReads                        0                       # Number of vector instruction queue reads (Count)
system.cpu.vecInstQueueWrites                       0                       # Number of vector instruction queue writes (Count)
system.cpu.vecInstQueueWakeupAccesses               0                       # Number of vector instruction queue wakeup accesses (Count)
system.cpu.intAluAccesses                    52081217                       # Number of integer alu accesses (Count)
system.cpu.fpAluAccesses                            0                       # Number of floating point alu accesses (Count)
system.cpu.vecAluAccesses                           0                       # Number of vector alu accesses (Count)
system.cpu.numInsts                          52077547                       # Number of executed instructions (Count)
system.cpu.numLoadInsts                      16442400                       # Number of load instructions executed (Count)
system.cpu.numSquashedInsts                      1368                       # Number of squashed instructions skipped in execute (Count)
system.cpu.numSwp                                   0                       # Number of swp insts executed (Count)
system.cpu.numNop                                   0                       # Number of nop insts executed (Count)
system.cpu.numRefs                           26035562                       # Number of memory reference insts executed (Count)
system.cpu.numBranches                        6854469                       # Number of branches executed (Count)
system.cpu.numStoreInsts                      9593162                       # Number of stores executed (Count)
system.cpu.numRate                           1.723452                       # Inst execution rate ((Count/Cycle))
system.cpu.timesIdled                             410                       # Number of times that the entire CPU went into an idle state and unscheduled itself (Count)
system.cpu.idleCycles                           44595                       # Total number of cycles that the CPU has spent unscheduled due to idling (Cycle)
system.cpu.committedInsts                    34258606                       # Number of Instructions Simulated (Count)
system.cpu.committedOps                      47957048                       # Number of Ops (including micro ops) Simulated (Count)
system.cpu.cpi                               0.882026                       # CPI: Cycles Per Instruction ((Cycle/Count))
system.cpu.totalCpi                          0.882026                       # CPI: Total CPI of All Threads ((Cycle/Count))
system.cpu.ipc                               1.133753                       # IPC: Instructions Per Cycle ((Count/Cycle))
system.cpu.totalIpc                          1.133753                       # IPC: Total IPC of All Threads ((Count/Cycle))
system.cpu.intRegfileReads                   60295356                       # Number of integer regfile reads (Count)
system.cpu.intRegfileWrites                  32887444                       # Number of integer regfile writes (Count)
system.cpu.vecRegfileReads                         16                       # number of vector regfile reads (Count)
system.cpu.ccRegfileReads                   193233425                       # number of cc regfile reads (Count)
system.cpu.ccRegfileWrites                   10972233                       # number of cc regfile writes (Count)
system.cpu.miscRegfileReads                  21929116                       # number of misc regfile reads (Count)
system.cpu.miscRegfileWrites                      113                       # number of misc regfile writes (Count)
system.cpu.MemDepUnit__0.insertedLoads       12336702                       # Number of loads inserted to the mem dependence unit. (Count)
system.cpu.MemDepUnit__0.insertedStores       9594773                       # Number of stores inserted to the mem dependence unit. (Count)
system.cpu.MemDepUnit__0.conflictingLoads      4107187                       # Number of conflicting loads. (Count)
system.cpu.MemDepUnit__0.conflictingStores      8213729                       # Number of conflicting stores. (Count)
system.cpu.MemDepUnit__1.insertedLoads              0                       # Number of loads inserted to the mem dependence unit. (Count)
system.cpu.MemDepUnit__1.insertedStores             0                       # Number of stores inserted to the mem dependence unit. (Count)
system.cpu.MemDepUnit__1.conflictingLoads            0                       # Number of conflicting loads. (Count)
system.cpu.MemDepUnit__1.conflictingStores            0                       # Number of conflicting stores. (Count)
system.cpu.MemDepUnit__2.insertedLoads              0                       # Number of loads inserted to the mem dependence unit. (Count)
system.cpu.MemDepUnit__2.insertedStores             0                       # Number of stores inserted to the mem dependence unit. (Count)
system.cpu.MemDepUnit__2.conflictingLoads            0                       # Number of conflicting loads. (Count)
system.cpu.MemDepUnit__2.conflictingStores            0                       # Number of conflicting stores. (Count)
system.cpu.MemDepUnit__3.insertedLoads              0                       # Number of loads inserted to the mem dependence unit. (Count)
system.cpu.MemDepUnit__3.insertedStores             0                       # Number of stores inserted to the mem dependence unit. (Count)
system.cpu.MemDepUnit__3.conflictingLoads            0                       # Number of conflicting loads. (Count)
system.cpu.MemDepUnit__3.conflictingStores            0                       # Number of conflicting stores. (Count)
system.cpu.branchPred.lookups                 6861395                       # Number of BP lookups (Count)
system.cpu.branchPred.condPredicted           4117279                       # Number of conditional branches predicted (Count)
system.cpu.branchPred.condIncorrect              1216                       # Number of conditional branches incorrect (Count)
system.cpu.branchPred.BTBLookups              4113341                       # Number of BTB lookups (Count)
system.cpu.branchPred.BTBHits                 4112128                       # Number of BTB hits (Count)
system.cpu.branchPred.BTBHitRatio            0.999705                       # BTB Hit Ratio (Ratio)
system.cpu.branchPred.RASUsed                 1371429                       # Number of times the RAS was used to get a target. (Count)
system.cpu.branchPred.RASIncorrect                 61                       # Number of incorrect RAS predictions. (Count)
system.cpu.branchPred.indirectLookups            1304                       # Number of indirect predictor lookups. (Count)
system.cpu.branchPred.indirectHits                994                       # Number of indirect target hits. (Count)
system.cpu.branchPred.indirectMisses              310                       # Number of indirect misses. (Count)
system.cpu.branchPred.indirectMispredicted          151                       # Number of mispredicted indirect branches. (Count)
system.cpu.commit.commitSquashedInsts           22282                       # The number of squashed insts skipped by commit (Count)
system.cpu.commit.commitNonSpecStalls             239                       # The number of times commit has been forced to stall to communicate backwards (Count)
system.cpu.commit.branchMispredicts               919                       # The number of times a branch was mispredicted (Count)
system.cpu.commit.numCommittedDist::samples     30168702                       # Number of insts commited each cycle (Count)
system.cpu.commit.numCommittedDist::mean     1.589629                       # Number of insts commited each cycle (Count)
system.cpu.commit.numCommittedDist::stdev     2.146075                       # Number of insts commited each cycle (Count)
system.cpu.commit.numCommittedDist::underflows            0      0.00%      0.00% # Number of insts commited each cycle (Count)
system.cpu.commit.numCommittedDist::0        10992388     36.44%     36.44% # Number of insts commited each cycle (Count)
system.cpu.commit.numCommittedDist::1        10953931     36.31%     72.75% # Number of insts commited each cycle (Count)
system.cpu.commit.numCommittedDist::2         2740316      9.08%     81.83% # Number of insts commited each cycle (Count)
system.cpu.commit.numCommittedDist::3            1763      0.01%     81.83% # Number of insts commited each cycle (Count)
system.cpu.commit.numCommittedDist::4         1369123      4.54%     86.37% # Number of insts commited each cycle (Count)
system.cpu.commit.numCommittedDist::5         1370063      4.54%     90.91% # Number of insts commited each cycle (Count)
system.cpu.commit.numCommittedDist::6         1369111      4.54%     95.45% # Number of insts commited each cycle (Count)
system.cpu.commit.numCommittedDist::7             333      0.00%     95.45% # Number of insts commited each cycle (Count)
system.cpu.commit.numCommittedDist::8         1371674      4.55%    100.00% # Number of insts commited each cycle (Count)
system.cpu.commit.numCommittedDist::overflows            0      0.00%    100.00% # Number of insts commited each cycle (Count)
system.cpu.commit.numCommittedDist::min_value            0                       # Number of insts commited each cycle (Count)
system.cpu.commit.numCommittedDist::max_value            8                       # Number of insts commited each cycle (Count)
system.cpu.commit.numCommittedDist::total     30168702                       # Number of insts commited each cycle (Count)
system.cpu.commit.instsCommitted             34258606                       # Number of instructions committed (Count)
system.cpu.commit.opsCommitted               47957048                       # Number of ops (including micro ops) committed (Count)
system.cpu.commit.memRefs                    21922613                       # Number of memory references committed (Count)
system.cpu.commit.loads                      12331346                       # Number of loads committed (Count)
system.cpu.commit.amos                              0                       # Number of atomic instructions committed (Count)
system.cpu.commit.membars                          28                       # Number of memory barriers committed (Count)
system.cpu.commit.branches                    6852487                       # Number of branches committed (Count)
system.cpu.commit.vectorInstructions                0                       # Number of committed Vector instructions. (Count)
system.cpu.commit.floating                          0                       # Number of committed floating point instructions. (Count)
system.cpu.commit.integer                    43844597                       # Number of committed integer instructions. (Count)
system.cpu.commit.functionCalls               1369782                       # Number of function calls committed. (Count)
system.cpu.commit.committedInstType_0::No_OpClass            0      0.00%      0.00% # Class of committed instruction (Count)
system.cpu.commit.committedInstType_0::IntAlu     26034423     54.29%     54.29% # Class of committed instruction (Count)
system.cpu.commit.committedInstType_0::IntMult           12      0.00%     54.29% # Class of committed instruction (Count)
system.cpu.commit.committedInstType_0::IntDiv            0      0.00%     54.29% # Class of committed instruction (Count)
system.cpu.commit.committedInstType_0::FloatAdd            0      0.00%     54.29% # Class of committed instruction (Count)
system.cpu.commit.committedInstType_0::FloatCmp            0      0.00%     54.29% # Class of committed instruction (Count)
system.cpu.commit.committedInstType_0::FloatCvt            0      0.00%     54.29% # Class of committed instruction (Count)
system.cpu.commit.committedInstType_0::FloatMult            0      0.00%     54.29% # Class of committed instruction (Count)
system.cpu.commit.committedInstType_0::FloatMultAcc            0      0.00%     54.29% # Class of committed instruction (Count)
system.cpu.commit.committedInstType_0::FloatDiv            0      0.00%     54.29% # Class of committed instruction (Count)
system.cpu.commit.committedInstType_0::FloatMisc            0      0.00%     54.29% # Class of committed instruction (Count)
system.cpu.commit.committedInstType_0::FloatSqrt            0      0.00%     54.29% # Class of committed instruction (Count)
system.cpu.commit.committedInstType_0::SimdAdd            0      0.00%     54.29% # Class of committed instruction (Count)
system.cpu.commit.committedInstType_0::SimdAddAcc            0      0.00%     54.29% # Class of committed instruction (Count)
system.cpu.commit.committedInstType_0::SimdAlu            0      0.00%     54.29% # Class of committed instruction (Count)
system.cpu.commit.committedInstType_0::SimdCmp            0      0.00%     54.29% # Class of committed instruction (Count)
system.cpu.commit.committedInstType_0::SimdCvt            0      0.00%     54.29% # Class of committed instruction (Count)
system.cpu.commit.committedInstType_0::SimdMisc            0      0.00%     54.29% # Class of committed instruction (Count)
system.cpu.commit.committedInstType_0::SimdMult            0      0.00%     54.29% # Class of committed instruction (Count)
system.cpu.commit.committedInstType_0::SimdMultAcc            0      0.00%     54.29% # Class of committed instruction (Count)
system.cpu.commit.committedInstType_0::SimdShift            0      0.00%     54.29% # Class of committed instruction (Count)
system.cpu.commit.committedInstType_0::SimdShiftAcc            0      0.00%     54.29% # Class of committed instruction (Count)
system.cpu.commit.committedInstType_0::SimdDiv            0      0.00%     54.29% # Class of committed instruction (Count)
system.cpu.commit.committedInstType_0::SimdSqrt            0      0.00%     54.29% # Class of committed instruction (Count)
system.cpu.commit.committedInstType_0::SimdFloatAdd            0      0.00%     54.29% # Class of committed instruction (Count)
system.cpu.commit.committedInstType_0::SimdFloatAlu            0      0.00%     54.29% # Class of committed instruction (Count)
system.cpu.commit.committedInstType_0::SimdFloatCmp            0      0.00%     54.29% # Class of committed instruction (Count)
system.cpu.commit.committedInstType_0::SimdFloatCvt            0      0.00%     54.29% # Class of committed instruction (Count)
system.cpu.commit.committedInstType_0::SimdFloatDiv            0      0.00%     54.29% # Class of committed instruction (Count)
system.cpu.commit.committedInstType_0::SimdFloatMisc            0      0.00%     54.29% # Class of committed instruction (Count)
system.cpu.commit.committedInstType_0::SimdFloatMult            0      0.00%     54.29% # Class of committed instruction (Count)
system.cpu.commit.committedInstType_0::SimdFloatMultAcc            0      0.00%     54.29% # Class of committed instruction (Count)
system.cpu.commit.committedInstType_0::SimdFloatSqrt            0      0.00%     54.29% # Class of committed instruction (Count)
system.cpu.commit.committedInstType_0::SimdReduceAdd            0      0.00%     54.29% # Class of committed instruction (Count)
system.cpu.commit.committedInstType_0::SimdReduceAlu            0      0.00%     54.29% # Class of committed instruction (Count)
system.cpu.commit.committedInstType_0::SimdReduceCmp            0      0.00%     54.29% # Class of committed instruction (Count)
system.cpu.commit.committedInstType_0::SimdFloatReduceAdd            0      0.00%     54.29% # Class of committed instruction (Count)
system.cpu.commit.committedInstType_0::SimdFloatReduceCmp            0      0.00%     54.29% # Class of committed instruction (Count)
system.cpu.commit.committedInstType_0::SimdAes            0      0.00%     54.29% # Class of committed instruction (Count)
system.cpu.commit.committedInstType_0::SimdAesMix            0      0.00%     54.29% # Class of committed instruction (Count)
system.cpu.commit.committedInstType_0::SimdSha1Hash            0      0.00%     54.29% # Class of committed instruction (Count)
system.cpu.commit.committedInstType_0::SimdSha1Hash2            0      0.00%     54.29% # Class of committed instruction (Count)
system.cpu.commit.committedInstType_0::SimdSha256Hash            0      0.00%     54.29% # Class of committed instruction (Count)
system.cpu.commit.committedInstType_0::SimdSha256Hash2            0      0.00%     54.29% # Class of committed instruction (Count)
system.cpu.commit.committedInstType_0::SimdShaSigma2            0      0.00%     54.29% # Class of committed instruction (Count)
system.cpu.commit.committedInstType_0::SimdShaSigma3            0      0.00%     54.29% # Class of committed instruction (Count)
system.cpu.commit.committedInstType_0::SimdPredAlu            0      0.00%     54.29% # Class of committed instruction (Count)
system.cpu.commit.committedInstType_0::MemRead     12331346     25.71%     80.00% # Class of committed instruction (Count)
system.cpu.commit.committedInstType_0::MemWrite      9591267     20.00%    100.00% # Class of committed instruction (Count)
system.cpu.commit.committedInstType_0::FloatMemRead            0      0.00%    100.00% # Class of committed instruction (Count)
system.cpu.commit.committedInstType_0::FloatMemWrite            0      0.00%    100.00% # Class of committed instruction (Count)
system.cpu.commit.committedInstType_0::IprAccess            0      0.00%    100.00% # Class of committed instruction (Count)
system.cpu.commit.committedInstType_0::InstPrefetch            0      0.00%    100.00% # Class of committed instruction (Count)
system.cpu.commit.committedInstType_0::total     47957048                       # Class of committed instruction (Count)
system.cpu.commit.commitEligibleSamples       1371674                       # number cycles where commit BW limit reached (Cycle)
system.cpu.dcache.demandHits::cpu.data       20554149                       # number of demand (read+write) hits (Count)
system.cpu.dcache.demandHits::total          20554149                       # number of demand (read+write) hits (Count)
system.cpu.dcache.overallHits::cpu.data      20554149                       # number of overall hits (Count)
system.cpu.dcache.overallHits::total         20554149                       # number of overall hits (Count)
system.cpu.dcache.demandMisses::cpu.data         2066                       # number of demand (read+write) misses (Count)
system.cpu.dcache.demandMisses::total            2066                       # number of demand (read+write) misses (Count)
system.cpu.dcache.overallMisses::cpu.data         2066                       # number of overall misses (Count)
system.cpu.dcache.overallMisses::total           2066                       # number of overall misses (Count)
system.cpu.dcache.demandMissLatency::cpu.data     93893497                       # number of demand (read+write) miss ticks (Tick)
system.cpu.dcache.demandMissLatency::total     93893497                       # number of demand (read+write) miss ticks (Tick)
system.cpu.dcache.overallMissLatency::cpu.data     93893497                       # number of overall miss ticks (Tick)
system.cpu.dcache.overallMissLatency::total     93893497                       # number of overall miss ticks (Tick)
system.cpu.dcache.demandAccesses::cpu.data     20556215                       # number of demand (read+write) accesses (Count)
system.cpu.dcache.demandAccesses::total      20556215                       # number of demand (read+write) accesses (Count)
system.cpu.dcache.overallAccesses::cpu.data     20556215                       # number of overall (read+write) accesses (Count)
system.cpu.dcache.overallAccesses::total     20556215                       # number of overall (read+write) accesses (Count)
system.cpu.dcache.demandMissRate::cpu.data     0.000101                       # miss rate for demand accesses (Ratio)
system.cpu.dcache.demandMissRate::total      0.000101                       # miss rate for demand accesses (Ratio)
system.cpu.dcache.overallMissRate::cpu.data     0.000101                       # miss rate for overall accesses (Ratio)
system.cpu.dcache.overallMissRate::total     0.000101                       # miss rate for overall accesses (Ratio)
system.cpu.dcache.demandAvgMissLatency::cpu.data 45446.997580                       # average overall miss latency in ticks ((Tick/Count))
system.cpu.dcache.demandAvgMissLatency::total 45446.997580                       # average overall miss latency in ticks ((Tick/Count))
system.cpu.dcache.overallAvgMissLatency::cpu.data 45446.997580                       # average overall miss latency ((Tick/Count))
system.cpu.dcache.overallAvgMissLatency::total 45446.997580                       # average overall miss latency ((Tick/Count))
system.cpu.dcache.blockedCycles::no_mshrs          544                       # number of cycles access was blocked (Cycle)
system.cpu.dcache.blockedCycles::no_targets            0                       # number of cycles access was blocked (Cycle)
system.cpu.dcache.blockedCauses::no_mshrs            9                       # number of times access was blocked (Count)
system.cpu.dcache.blockedCauses::no_targets            0                       # number of times access was blocked (Count)
system.cpu.dcache.avgBlocked::no_mshrs      60.444444                       # average number of cycles each access was blocked ((Cycle/Count))
system.cpu.dcache.avgBlocked::no_targets          nan                       # average number of cycles each access was blocked ((Cycle/Count))
system.cpu.dcache.writebacks::writebacks            8                       # number of writebacks (Count)
system.cpu.dcache.writebacks::total                 8                       # number of writebacks (Count)
system.cpu.dcache.demandMshrHits::cpu.data          998                       # number of demand (read+write) MSHR hits (Count)
system.cpu.dcache.demandMshrHits::total           998                       # number of demand (read+write) MSHR hits (Count)
system.cpu.dcache.overallMshrHits::cpu.data          998                       # number of overall MSHR hits (Count)
system.cpu.dcache.overallMshrHits::total          998                       # number of overall MSHR hits (Count)
system.cpu.dcache.demandMshrMisses::cpu.data         1068                       # number of demand (read+write) MSHR misses (Count)
system.cpu.dcache.demandMshrMisses::total         1068                       # number of demand (read+write) MSHR misses (Count)
system.cpu.dcache.overallMshrMisses::cpu.data         1068                       # number of overall MSHR misses (Count)
system.cpu.dcache.overallMshrMisses::total         1068                       # number of overall MSHR misses (Count)
system.cpu.dcache.demandMshrMissLatency::cpu.data     39418500                       # number of demand (read+write) MSHR miss ticks (Tick)
system.cpu.dcache.demandMshrMissLatency::total     39418500                       # number of demand (read+write) MSHR miss ticks (Tick)
system.cpu.dcache.overallMshrMissLatency::cpu.data     39418500                       # number of overall MSHR miss ticks (Tick)
system.cpu.dcache.overallMshrMissLatency::total     39418500                       # number of overall MSHR miss ticks (Tick)
system.cpu.dcache.demandMshrMissRate::cpu.data     0.000052                       # mshr miss ratio for demand accesses (Ratio)
system.cpu.dcache.demandMshrMissRate::total     0.000052                       # mshr miss ratio for demand accesses (Ratio)
system.cpu.dcache.overallMshrMissRate::cpu.data     0.000052                       # mshr miss ratio for overall accesses (Ratio)
system.cpu.dcache.overallMshrMissRate::total     0.000052                       # mshr miss ratio for overall accesses (Ratio)
system.cpu.dcache.demandAvgMshrMissLatency::cpu.data 36908.707865                       # average overall mshr miss latency ((Tick/Count))
system.cpu.dcache.demandAvgMshrMissLatency::total 36908.707865                       # average overall mshr miss latency ((Tick/Count))
system.cpu.dcache.overallAvgMshrMissLatency::cpu.data 36908.707865                       # average overall mshr miss latency ((Tick/Count))
system.cpu.dcache.overallAvgMshrMissLatency::total 36908.707865                       # average overall mshr miss latency ((Tick/Count))
system.cpu.dcache.replacements                    699                       # number of replacements (Count)
system.cpu.dcache.LoadLockedReq.hits::cpu.data           27                       # number of LoadLockedReq hits (Count)
system.cpu.dcache.LoadLockedReq.hits::total           27                       # number of LoadLockedReq hits (Count)
system.cpu.dcache.LoadLockedReq.misses::cpu.data            1                       # number of LoadLockedReq misses (Count)
system.cpu.dcache.LoadLockedReq.misses::total            1                       # number of LoadLockedReq misses (Count)
system.cpu.dcache.LoadLockedReq.missLatency::cpu.data       101500                       # number of LoadLockedReq miss ticks (Tick)
system.cpu.dcache.LoadLockedReq.missLatency::total       101500                       # number of LoadLockedReq miss ticks (Tick)
system.cpu.dcache.LoadLockedReq.accesses::cpu.data           28                       # number of LoadLockedReq accesses(hits+misses) (Count)
system.cpu.dcache.LoadLockedReq.accesses::total           28                       # number of LoadLockedReq accesses(hits+misses) (Count)
system.cpu.dcache.LoadLockedReq.missRate::cpu.data     0.035714                       # miss rate for LoadLockedReq accesses (Ratio)
system.cpu.dcache.LoadLockedReq.missRate::total     0.035714                       # miss rate for LoadLockedReq accesses (Ratio)
system.cpu.dcache.LoadLockedReq.avgMissLatency::cpu.data       101500                       # average LoadLockedReq miss latency ((Tick/Count))
system.cpu.dcache.LoadLockedReq.avgMissLatency::total       101500                       # average LoadLockedReq miss latency ((Tick/Count))
system.cpu.dcache.LoadLockedReq.mshrHits::cpu.data            1                       # number of LoadLockedReq MSHR hits (Count)
system.cpu.dcache.LoadLockedReq.mshrHits::total            1                       # number of LoadLockedReq MSHR hits (Count)
system.cpu.dcache.ReadReq.hits::cpu.data     10963884                       # number of ReadReq hits (Count)
system.cpu.dcache.ReadReq.hits::total        10963884                       # number of ReadReq hits (Count)
system.cpu.dcache.ReadReq.misses::cpu.data         1502                       # number of ReadReq misses (Count)
system.cpu.dcache.ReadReq.misses::total          1502                       # number of ReadReq misses (Count)
system.cpu.dcache.ReadReq.missLatency::cpu.data     48904000                       # number of ReadReq miss ticks (Tick)
system.cpu.dcache.ReadReq.missLatency::total     48904000                       # number of ReadReq miss ticks (Tick)
system.cpu.dcache.ReadReq.accesses::cpu.data     10965386                       # number of ReadReq accesses(hits+misses) (Count)
system.cpu.dcache.ReadReq.accesses::total     10965386                       # number of ReadReq accesses(hits+misses) (Count)
system.cpu.dcache.ReadReq.missRate::cpu.data     0.000137                       # miss rate for ReadReq accesses (Ratio)
system.cpu.dcache.ReadReq.missRate::total     0.000137                       # miss rate for ReadReq accesses (Ratio)
system.cpu.dcache.ReadReq.avgMissLatency::cpu.data 32559.254328                       # average ReadReq miss latency ((Tick/Count))
system.cpu.dcache.ReadReq.avgMissLatency::total 32559.254328                       # average ReadReq miss latency ((Tick/Count))
system.cpu.dcache.ReadReq.mshrHits::cpu.data          504                       # number of ReadReq MSHR hits (Count)
system.cpu.dcache.ReadReq.mshrHits::total          504                       # number of ReadReq MSHR hits (Count)
system.cpu.dcache.ReadReq.mshrMisses::cpu.data          998                       # number of ReadReq MSHR misses (Count)
system.cpu.dcache.ReadReq.mshrMisses::total          998                       # number of ReadReq MSHR misses (Count)
system.cpu.dcache.ReadReq.mshrMissLatency::cpu.data     33119500                       # number of ReadReq MSHR miss ticks (Tick)
system.cpu.dcache.ReadReq.mshrMissLatency::total     33119500                       # number of ReadReq MSHR miss ticks (Tick)
system.cpu.dcache.ReadReq.mshrMissRate::cpu.data     0.000091                       # mshr miss rate for ReadReq accesses (Ratio)
system.cpu.dcache.ReadReq.mshrMissRate::total     0.000091                       # mshr miss rate for ReadReq accesses (Ratio)
system.cpu.dcache.ReadReq.avgMshrMissLatency::cpu.data 33185.871743                       # average ReadReq mshr miss latency ((Tick/Count))
system.cpu.dcache.ReadReq.avgMshrMissLatency::total 33185.871743                       # average ReadReq mshr miss latency ((Tick/Count))
system.cpu.dcache.StoreCondReq.hits::cpu.data           28                       # number of StoreCondReq hits (Count)
system.cpu.dcache.StoreCondReq.hits::total           28                       # number of StoreCondReq hits (Count)
system.cpu.dcache.StoreCondReq.accesses::cpu.data           28                       # number of StoreCondReq accesses(hits+misses) (Count)
system.cpu.dcache.StoreCondReq.accesses::total           28                       # number of StoreCondReq accesses(hits+misses) (Count)
system.cpu.dcache.WriteReq.hits::cpu.data      9590265                       # number of WriteReq hits (Count)
system.cpu.dcache.WriteReq.hits::total        9590265                       # number of WriteReq hits (Count)
system.cpu.dcache.WriteReq.misses::cpu.data          564                       # number of WriteReq misses (Count)
system.cpu.dcache.WriteReq.misses::total          564                       # number of WriteReq misses (Count)
system.cpu.dcache.WriteReq.missLatency::cpu.data     44989497                       # number of WriteReq miss ticks (Tick)
system.cpu.dcache.WriteReq.missLatency::total     44989497                       # number of WriteReq miss ticks (Tick)
system.cpu.dcache.WriteReq.accesses::cpu.data      9590829                       # number of WriteReq accesses(hits+misses) (Count)
system.cpu.dcache.WriteReq.accesses::total      9590829                       # number of WriteReq accesses(hits+misses) (Count)
system.cpu.dcache.WriteReq.missRate::cpu.data     0.000059                       # miss rate for WriteReq accesses (Ratio)
system.cpu.dcache.WriteReq.missRate::total     0.000059                       # miss rate for WriteReq accesses (Ratio)
system.cpu.dcache.WriteReq.avgMissLatency::cpu.data 79768.611702                       # average WriteReq miss latency ((Tick/Count))
system.cpu.dcache.WriteReq.avgMissLatency::total 79768.611702                       # average WriteReq miss latency ((Tick/Count))
system.cpu.dcache.WriteReq.mshrHits::cpu.data          494                       # number of WriteReq MSHR hits (Count)
system.cpu.dcache.WriteReq.mshrHits::total          494                       # number of WriteReq MSHR hits (Count)
system.cpu.dcache.WriteReq.mshrMisses::cpu.data           70                       # number of WriteReq MSHR misses (Count)
system.cpu.dcache.WriteReq.mshrMisses::total           70                       # number of WriteReq MSHR misses (Count)
system.cpu.dcache.WriteReq.mshrMissLatency::cpu.data      6299000                       # number of WriteReq MSHR miss ticks (Tick)
system.cpu.dcache.WriteReq.mshrMissLatency::total      6299000                       # number of WriteReq MSHR miss ticks (Tick)
system.cpu.dcache.WriteReq.mshrMissRate::cpu.data     0.000007                       # mshr miss rate for WriteReq accesses (Ratio)
system.cpu.dcache.WriteReq.mshrMissRate::total     0.000007                       # mshr miss rate for WriteReq accesses (Ratio)
system.cpu.dcache.WriteReq.avgMshrMissLatency::cpu.data 89985.714286                       # average WriteReq mshr miss latency ((Tick/Count))
system.cpu.dcache.WriteReq.avgMshrMissLatency::total 89985.714286                       # average WriteReq mshr miss latency ((Tick/Count))
system.cpu.dcache.power_state.pwrStateResidencyTicks::UNDEFINED  15108497500                       # Cumulative time (in ticks) in various power states (Tick)
system.cpu.dcache.tags.tagsInUse           323.322063                       # Average ticks per tags in use ((Tick/Count))
system.cpu.dcache.tags.totalRefs             20555272                       # Total number of references to valid blocks. (Count)
system.cpu.dcache.tags.sampledRefs               1068                       # Sample count of references to valid blocks. (Count)
system.cpu.dcache.tags.avgRefs           19246.509363                       # Average number of references to valid blocks. ((Count/Count))
system.cpu.dcache.tags.warmupTick              176500                       # The tick when the warmup percentage was hit. (Tick)
system.cpu.dcache.tags.occupancies::cpu.data   323.322063                       # Average occupied blocks per tick, per requestor ((Count/Tick))
system.cpu.dcache.tags.avgOccs::cpu.data     0.315744                       # Average percentage of cache occupancy ((Ratio/Tick))
system.cpu.dcache.tags.avgOccs::total        0.315744                       # Average percentage of cache occupancy ((Ratio/Tick))
system.cpu.dcache.tags.occupanciesTaskId::1024          369                       # Occupied blocks per task id (Count)
system.cpu.dcache.tags.ageTaskId_1024::0           53                       # Occupied blocks per task id, per block age (Count)
system.cpu.dcache.tags.ageTaskId_1024::1           11                       # Occupied blocks per task id, per block age (Count)
system.cpu.dcache.tags.ageTaskId_1024::4          305                       # Occupied blocks per task id, per block age (Count)
system.cpu.dcache.tags.ratioOccsTaskId::1024     0.360352                       # Ratio of occupied blocks and all blocks, per task id (Ratio)
system.cpu.dcache.tags.tagAccesses           41113610                       # Number of tag accesses (Count)
system.cpu.dcache.tags.dataAccesses          41113610                       # Number of data accesses (Count)
system.cpu.dcache.tags.power_state.pwrStateResidencyTicks::UNDEFINED  15108497500                       # Cumulative time (in ticks) in various power states (Tick)
system.cpu.decode.idleCycles                  1393595                       # Number of cycles decode is idle (Cycle)
system.cpu.decode.blockedCycles              21920396                       # Number of cycles decode is blocked (Cycle)
system.cpu.decode.runCycles                   4115664                       # Number of cycles decode is running (Cycle)
system.cpu.decode.unblockCycles               2741326                       # Number of cycles decode is unblocking (Cycle)
system.cpu.decode.squashCycles                   1420                       # Number of cycles decode is squashing (Cycle)
system.cpu.decode.branchResolved              4110897                       # Number of times decode resolved a branch (Count)
system.cpu.decode.branchMispred                   323                       # Number of times decode detected a branch misprediction (Count)
system.cpu.decode.decodedInsts               47989922                       # Number of instructions handled by decode (Count)
system.cpu.decode.squashedInsts                  1248                       # Number of squashed instructions handled by decode (Count)
system.cpu.fetch.icacheStallCycles            6870099                       # Number of cycles fetch is stalled on an Icache miss (Cycle)
system.cpu.fetch.insts                       34303582                       # Number of instructions fetch has processed (Count)
system.cpu.fetch.branches                     6861395                       # Number of branches that fetch encountered (Count)
system.cpu.fetch.predictedBranches            5484551                       # Number of branches that fetch has predicted taken (Count)
system.cpu.fetch.cycles                      23300437                       # Number of cycles fetch has run and was not squashing or blocked (Cycle)
system.cpu.fetch.squashCycles                    3456                       # Number of cycles fetch has spent squashing (Cycle)
system.cpu.fetch.miscStallCycles                   18                       # Number of cycles fetch has spent waiting on interrupts, or bad addresses, or out of MSHRs (Cycle)
system.cpu.fetch.pendingTrapStallCycles            68                       # Number of stall cycles due to pending traps (Cycle)
system.cpu.fetch.icacheWaitRetryStallCycles           51                       # Number of stall cycles due to full MSHR (Cycle)
system.cpu.fetch.cacheLines                   6858371                       # Number of cache lines fetched (Count)
system.cpu.fetch.icacheSquashes                   814                       # Number of outstanding Icache misses that were squashed (Count)
system.cpu.fetch.nisnDist::samples           30172401                       # Number of instructions fetched each cycle (Total) (Count)
system.cpu.fetch.nisnDist::mean              1.591335                       # Number of instructions fetched each cycle (Total) (Count)
system.cpu.fetch.nisnDist::stdev             2.570666                       # Number of instructions fetched each cycle (Total) (Count)
system.cpu.fetch.nisnDist::underflows               0      0.00%      0.00% # Number of instructions fetched each cycle (Total) (Count)
system.cpu.fetch.nisnDist::0                 19203936     63.65%     63.65% # Number of instructions fetched each cycle (Total) (Count)
system.cpu.fetch.nisnDist::1                  1366687      4.53%     68.18% # Number of instructions fetched each cycle (Total) (Count)
system.cpu.fetch.nisnDist::2                  1374746      4.56%     72.73% # Number of instructions fetched each cycle (Total) (Count)
system.cpu.fetch.nisnDist::3                  2730320      9.05%     81.78% # Number of instructions fetched each cycle (Total) (Count)
system.cpu.fetch.nisnDist::4                    10495      0.03%     81.82% # Number of instructions fetched each cycle (Total) (Count)
system.cpu.fetch.nisnDist::5                  2738883      9.08%     90.89% # Number of instructions fetched each cycle (Total) (Count)
system.cpu.fetch.nisnDist::6                     2690      0.01%     90.90% # Number of instructions fetched each cycle (Total) (Count)
system.cpu.fetch.nisnDist::7                     2439      0.01%     90.91% # Number of instructions fetched each cycle (Total) (Count)
system.cpu.fetch.nisnDist::8                  2742205      9.09%    100.00% # Number of instructions fetched each cycle (Total) (Count)
system.cpu.fetch.nisnDist::overflows                0      0.00%    100.00% # Number of instructions fetched each cycle (Total) (Count)
system.cpu.fetch.nisnDist::min_value                0                       # Number of instructions fetched each cycle (Total) (Count)
system.cpu.fetch.nisnDist::max_value                8                       # Number of instructions fetched each cycle (Total) (Count)
system.cpu.fetch.nisnDist::total             30172401                       # Number of instructions fetched each cycle (Total) (Count)
system.cpu.fetch.branchRate                  0.227071                       # Number of branch fetches per cycle (Ratio)
system.cpu.fetch.rate                        1.135241                       # Number of inst fetches per cycle ((Count/Cycle))
system.cpu.icache.demandHits::cpu.inst        6857558                       # number of demand (read+write) hits (Count)
system.cpu.icache.demandHits::total           6857558                       # number of demand (read+write) hits (Count)
system.cpu.icache.overallHits::cpu.inst       6857558                       # number of overall hits (Count)
system.cpu.icache.overallHits::total          6857558                       # number of overall hits (Count)
system.cpu.icache.demandMisses::cpu.inst          812                       # number of demand (read+write) misses (Count)
system.cpu.icache.demandMisses::total             812                       # number of demand (read+write) misses (Count)
system.cpu.icache.overallMisses::cpu.inst          812                       # number of overall misses (Count)
system.cpu.icache.overallMisses::total            812                       # number of overall misses (Count)
system.cpu.icache.demandMissLatency::cpu.inst     58289500                       # number of demand (read+write) miss ticks (Tick)
system.cpu.icache.demandMissLatency::total     58289500                       # number of demand (read+write) miss ticks (Tick)
system.cpu.icache.overallMissLatency::cpu.inst     58289500                       # number of overall miss ticks (Tick)
system.cpu.icache.overallMissLatency::total     58289500                       # number of overall miss ticks (Tick)
system.cpu.icache.demandAccesses::cpu.inst      6858370                       # number of demand (read+write) accesses (Count)
system.cpu.icache.demandAccesses::total       6858370                       # number of demand (read+write) accesses (Count)
system.cpu.icache.overallAccesses::cpu.inst      6858370                       # number of overall (read+write) accesses (Count)
system.cpu.icache.overallAccesses::total      6858370                       # number of overall (read+write) accesses (Count)
system.cpu.icache.demandMissRate::cpu.inst     0.000118                       # miss rate for demand accesses (Ratio)
system.cpu.icache.demandMissRate::total      0.000118                       # miss rate for demand accesses (Ratio)
system.cpu.icache.overallMissRate::cpu.inst     0.000118                       # miss rate for overall accesses (Ratio)
system.cpu.icache.overallMissRate::total     0.000118                       # miss rate for overall accesses (Ratio)
system.cpu.icache.demandAvgMissLatency::cpu.inst 71785.098522                       # average overall miss latency in ticks ((Tick/Count))
system.cpu.icache.demandAvgMissLatency::total 71785.098522                       # average overall miss latency in ticks ((Tick/Count))
system.cpu.icache.overallAvgMissLatency::cpu.inst 71785.098522                       # average overall miss latency ((Tick/Count))
system.cpu.icache.overallAvgMissLatency::total 71785.098522                       # average overall miss latency ((Tick/Count))
system.cpu.icache.blockedCycles::no_mshrs         1693                       # number of cycles access was blocked (Cycle)
system.cpu.icache.blockedCycles::no_targets            0                       # number of cycles access was blocked (Cycle)
system.cpu.icache.blockedCauses::no_mshrs           17                       # number of times access was blocked (Count)
system.cpu.icache.blockedCauses::no_targets            0                       # number of times access was blocked (Count)
system.cpu.icache.avgBlocked::no_mshrs      99.588235                       # average number of cycles each access was blocked ((Cycle/Count))
system.cpu.icache.avgBlocked::no_targets          nan                       # average number of cycles each access was blocked ((Cycle/Count))
system.cpu.icache.writebacks::writebacks           61                       # number of writebacks (Count)
system.cpu.icache.writebacks::total                61                       # number of writebacks (Count)
system.cpu.icache.demandMshrHits::cpu.inst          178                       # number of demand (read+write) MSHR hits (Count)
system.cpu.icache.demandMshrHits::total           178                       # number of demand (read+write) MSHR hits (Count)
system.cpu.icache.overallMshrHits::cpu.inst          178                       # number of overall MSHR hits (Count)
system.cpu.icache.overallMshrHits::total          178                       # number of overall MSHR hits (Count)
system.cpu.icache.demandMshrMisses::cpu.inst          634                       # number of demand (read+write) MSHR misses (Count)
system.cpu.icache.demandMshrMisses::total          634                       # number of demand (read+write) MSHR misses (Count)
system.cpu.icache.overallMshrMisses::cpu.inst          634                       # number of overall MSHR misses (Count)
system.cpu.icache.overallMshrMisses::total          634                       # number of overall MSHR misses (Count)
system.cpu.icache.demandMshrMissLatency::cpu.inst     48152000                       # number of demand (read+write) MSHR miss ticks (Tick)
system.cpu.icache.demandMshrMissLatency::total     48152000                       # number of demand (read+write) MSHR miss ticks (Tick)
system.cpu.icache.overallMshrMissLatency::cpu.inst     48152000                       # number of overall MSHR miss ticks (Tick)
system.cpu.icache.overallMshrMissLatency::total     48152000                       # number of overall MSHR miss ticks (Tick)
system.cpu.icache.demandMshrMissRate::cpu.inst     0.000092                       # mshr miss ratio for demand accesses (Ratio)
system.cpu.icache.demandMshrMissRate::total     0.000092                       # mshr miss ratio for demand accesses (Ratio)
system.cpu.icache.overallMshrMissRate::cpu.inst     0.000092                       # mshr miss ratio for overall accesses (Ratio)
system.cpu.icache.overallMshrMissRate::total     0.000092                       # mshr miss ratio for overall accesses (Ratio)
system.cpu.icache.demandAvgMshrMissLatency::cpu.inst 75949.526814                       # average overall mshr miss latency ((Tick/Count))
system.cpu.icache.demandAvgMshrMissLatency::total 75949.526814                       # average overall mshr miss latency ((Tick/Count))
system.cpu.icache.overallAvgMshrMissLatency::cpu.inst 75949.526814                       # average overall mshr miss latency ((Tick/Count))
system.cpu.icache.overallAvgMshrMissLatency::total 75949.526814                       # average overall mshr miss latency ((Tick/Count))
system.cpu.icache.replacements                     61                       # number of replacements (Count)
system.cpu.icache.ReadReq.hits::cpu.inst      6857558                       # number of ReadReq hits (Count)
system.cpu.icache.ReadReq.hits::total         6857558                       # number of ReadReq hits (Count)
system.cpu.icache.ReadReq.misses::cpu.inst          812                       # number of ReadReq misses (Count)
system.cpu.icache.ReadReq.misses::total           812                       # number of ReadReq misses (Count)
system.cpu.icache.ReadReq.missLatency::cpu.inst     58289500                       # number of ReadReq miss ticks (Tick)
system.cpu.icache.ReadReq.missLatency::total     58289500                       # number of ReadReq miss ticks (Tick)
system.cpu.icache.ReadReq.accesses::cpu.inst      6858370                       # number of ReadReq accesses(hits+misses) (Count)
system.cpu.icache.ReadReq.accesses::total      6858370                       # number of ReadReq accesses(hits+misses) (Count)
system.cpu.icache.ReadReq.missRate::cpu.inst     0.000118                       # miss rate for ReadReq accesses (Ratio)
system.cpu.icache.ReadReq.missRate::total     0.000118                       # miss rate for ReadReq accesses (Ratio)
system.cpu.icache.ReadReq.avgMissLatency::cpu.inst 71785.098522                       # average ReadReq miss latency ((Tick/Count))
system.cpu.icache.ReadReq.avgMissLatency::total 71785.098522                       # average ReadReq miss latency ((Tick/Count))
system.cpu.icache.ReadReq.mshrHits::cpu.inst          178                       # number of ReadReq MSHR hits (Count)
system.cpu.icache.ReadReq.mshrHits::total          178                       # number of ReadReq MSHR hits (Count)
system.cpu.icache.ReadReq.mshrMisses::cpu.inst          634                       # number of ReadReq MSHR misses (Count)
system.cpu.icache.ReadReq.mshrMisses::total          634                       # number of ReadReq MSHR misses (Count)
system.cpu.icache.ReadReq.mshrMissLatency::cpu.inst     48152000                       # number of ReadReq MSHR miss ticks (Tick)
system.cpu.icache.ReadReq.mshrMissLatency::total     48152000                       # number of ReadReq MSHR miss ticks (Tick)
system.cpu.icache.ReadReq.mshrMissRate::cpu.inst     0.000092                       # mshr miss rate for ReadReq accesses (Ratio)
system.cpu.icache.ReadReq.mshrMissRate::total     0.000092                       # mshr miss rate for ReadReq accesses (Ratio)
system.cpu.icache.ReadReq.avgMshrMissLatency::cpu.inst 75949.526814                       # average ReadReq mshr miss latency ((Tick/Count))
system.cpu.icache.ReadReq.avgMshrMissLatency::total 75949.526814                       # average ReadReq mshr miss latency ((Tick/Count))
system.cpu.icache.power_state.pwrStateResidencyTicks::UNDEFINED  15108497500                       # Cumulative time (in ticks) in various power states (Tick)
system.cpu.icache.tags.tagsInUse           363.824875                       # Average ticks per tags in use ((Tick/Count))
system.cpu.icache.tags.totalRefs              6858191                       # Total number of references to valid blocks. (Count)
system.cpu.icache.tags.sampledRefs                633                       # Sample count of references to valid blocks. (Count)
system.cpu.icache.tags.avgRefs           10834.424961                       # Average number of references to valid blocks. ((Count/Count))
system.cpu.icache.tags.warmupTick               87500                       # The tick when the warmup percentage was hit. (Tick)
system.cpu.icache.tags.occupancies::cpu.inst   363.824875                       # Average occupied blocks per tick, per requestor ((Count/Tick))
system.cpu.icache.tags.avgOccs::cpu.inst     0.355298                       # Average percentage of cache occupancy ((Ratio/Tick))
system.cpu.icache.tags.avgOccs::total        0.355298                       # Average percentage of cache occupancy ((Ratio/Tick))
system.cpu.icache.tags.occupanciesTaskId::1024          572                       # Occupied blocks per task id (Count)
system.cpu.icache.tags.ageTaskId_1024::0          162                       # Occupied blocks per task id, per block age (Count)
system.cpu.icache.tags.ageTaskId_1024::1           75                       # Occupied blocks per task id, per block age (Count)
system.cpu.icache.tags.ageTaskId_1024::4          335                       # Occupied blocks per task id, per block age (Count)
system.cpu.icache.tags.ratioOccsTaskId::1024     0.558594                       # Ratio of occupied blocks and all blocks, per task id (Ratio)
system.cpu.icache.tags.tagAccesses           13717373                       # Number of tag accesses (Count)
system.cpu.icache.tags.dataAccesses          13717373                       # Number of data accesses (Count)
system.cpu.icache.tags.power_state.pwrStateResidencyTicks::UNDEFINED  15108497500                       # Cumulative time (in ticks) in various power states (Tick)
system.cpu.iew.idleCycles                           0                       # Number of cycles IEW is idle (Cycle)
system.cpu.iew.squashCycles                      1420                       # Number of cycles IEW is squashing (Cycle)
system.cpu.iew.blockCycles                      13531                       # Number of cycles IEW is blocking (Cycle)
system.cpu.iew.unblockCycles                  1365126                       # Number of cycles IEW is unblocking (Cycle)
system.cpu.iew.dispatchedInsts               47979325                       # Number of instructions dispatched to IQ (Count)
system.cpu.iew.dispSquashedInsts                  432                       # Number of squashed instructions skipped by dispatch (Count)
system.cpu.iew.dispLoadInsts                 12336702                       # Number of dispatched load instructions (Count)
system.cpu.iew.dispStoreInsts                 9594773                       # Number of dispatched store instructions (Count)
system.cpu.iew.dispNonSpecInsts                   261                       # Number of dispatched non-speculative instructions (Count)
system.cpu.iew.iqFullEvents                   1361396                       # Number of times the IQ has become full, causing a stall (Count)
system.cpu.iew.lsqFullEvents                     3727                       # Number of times the LSQ has become full, causing a stall (Count)
system.cpu.iew.memOrderViolationEvents            556                       # Number of memory order violations (Count)
system.cpu.iew.predictedTakenIncorrect            160                       # Number of branches that were predicted taken incorrectly (Count)
system.cpu.iew.predictedNotTakenIncorrect          848                       # Number of branches that were predicted not taken incorrectly (Count)
system.cpu.iew.branchMispredicts                 1008                       # Number of branch mispredicts detected at execute (Count)
system.cpu.iew.instsToCommit                 47968864                       # Cumulative count of insts sent to commit (Count)
system.cpu.iew.writebackCount                47968352                       # Cumulative count of insts written-back (Count)
system.cpu.iew.producerInst                  24677592                       # Number of instructions producing a value (Count)
system.cpu.iew.consumerInst                  37033748                       # Number of instructions consuming a value (Count)
system.cpu.iew.wbRate                        1.587463                       # Insts written-back per cycle ((Count/Cycle))
system.cpu.iew.wbFanout                      0.666354                       # Average fanout of values written-back ((Count/Count))
system.cpu.lsq0.forwLoads                     1369096                       # Number of loads that had data forwarded from stores (Count)
system.cpu.lsq0.squashedLoads                    5356                       # Number of loads squashed (Count)
system.cpu.lsq0.ignoredResponses                    2                       # Number of memory responses ignored because the instruction is squashed (Count)
system.cpu.lsq0.memOrderViolation                 556                       # Number of memory ordering violations (Count)
system.cpu.lsq0.squashedStores                   3506                       # Number of stores squashed (Count)
system.cpu.lsq0.rescheduledLoads              4107724                       # Number of loads that were rescheduled (Count)
system.cpu.lsq0.blockedByCache                      9                       # Number of times an access to memory failed due to the cache being blocked (Count)
system.cpu.lsq0.loadToUse::samples           12331346                       # Distribution of cycle latency between the first time a load is issued and its completion (Unspecified)
system.cpu.lsq0.loadToUse::mean              3.785012                       # Distribution of cycle latency between the first time a load is issued and its completion (Unspecified)
system.cpu.lsq0.loadToUse::stdev             2.039217                       # Distribution of cycle latency between the first time a load is issued and its completion (Unspecified)
system.cpu.lsq0.loadToUse::0-9               12329689     99.99%     99.99% # Distribution of cycle latency between the first time a load is issued and its completion (Unspecified)
system.cpu.lsq0.loadToUse::10-19                  248      0.00%     99.99% # Distribution of cycle latency between the first time a load is issued and its completion (Unspecified)
system.cpu.lsq0.loadToUse::20-29                 1039      0.01%    100.00% # Distribution of cycle latency between the first time a load is issued and its completion (Unspecified)
system.cpu.lsq0.loadToUse::30-39                   10      0.00%    100.00% # Distribution of cycle latency between the first time a load is issued and its completion (Unspecified)
system.cpu.lsq0.loadToUse::40-49                   11      0.00%    100.00% # Distribution of cycle latency between the first time a load is issued and its completion (Unspecified)
system.cpu.lsq0.loadToUse::50-59                    1      0.00%    100.00% # Distribution of cycle latency between the first time a load is issued and its completion (Unspecified)
system.cpu.lsq0.loadToUse::60-69                    1      0.00%    100.00% # Distribution of cycle latency between the first time a load is issued and its completion (Unspecified)
system.cpu.lsq0.loadToUse::100-109                  1      0.00%    100.00% # Distribution of cycle latency between the first time a load is issued and its completion (Unspecified)
system.cpu.lsq0.loadToUse::110-119                  2      0.00%    100.00% # Distribution of cycle latency between the first time a load is issued and its completion (Unspecified)
system.cpu.lsq0.loadToUse::120-129                  5      0.00%    100.00% # Distribution of cycle latency between the first time a load is issued and its completion (Unspecified)
system.cpu.lsq0.loadToUse::130-139                  9      0.00%    100.00% # Distribution of cycle latency between the first time a load is issued and its completion (Unspecified)
system.cpu.lsq0.loadToUse::140-149                181      0.00%    100.00% # Distribution of cycle latency between the first time a load is issued and its completion (Unspecified)
system.cpu.lsq0.loadToUse::150-159                 54      0.00%    100.00% # Distribution of cycle latency between the first time a load is issued and its completion (Unspecified)
system.cpu.lsq0.loadToUse::160-169                  8      0.00%    100.00% # Distribution of cycle latency between the first time a load is issued and its completion (Unspecified)
system.cpu.lsq0.loadToUse::170-179                 33      0.00%    100.00% # Distribution of cycle latency between the first time a load is issued and its completion (Unspecified)
system.cpu.lsq0.loadToUse::180-189                  6      0.00%    100.00% # Distribution of cycle latency between the first time a load is issued and its completion (Unspecified)
system.cpu.lsq0.loadToUse::190-199                  4      0.00%    100.00% # Distribution of cycle latency between the first time a load is issued and its completion (Unspecified)
system.cpu.lsq0.loadToUse::200-209                 22      0.00%    100.00% # Distribution of cycle latency between the first time a load is issued and its completion (Unspecified)
system.cpu.lsq0.loadToUse::210-219                 10      0.00%    100.00% # Distribution of cycle latency between the first time a load is issued and its completion (Unspecified)
system.cpu.lsq0.loadToUse::230-239                  1      0.00%    100.00% # Distribution of cycle latency between the first time a load is issued and its completion (Unspecified)
[...]
system.mem_ctrls.dram.perBankWrBursts::5            0                       # Per bank write bursts (Count)
system.mem_ctrls.dram.perBankWrBursts::6            0                       # Per bank write bursts (Count)
system.mem_ctrls.dram.perBankWrBursts::7            0                       # Per bank write bursts (Count)
system.mem_ctrls.dram.perBankWrBursts::8            0                       # Per bank write bursts (Count)
system.mem_ctrls.dram.perBankWrBursts::9            0                       # Per bank write bursts (Count)
system.mem_ctrls.dram.perBankWrBursts::10            0                       # Per bank write bursts (Count)
system.mem_ctrls.dram.perBankWrBursts::11            0                       # Per bank write bursts (Count)
system.mem_ctrls.dram.perBankWrBursts::12            0                       # Per bank write bursts (Count)
system.mem_ctrls.dram.perBankWrBursts::13            0                       # Per bank write bursts (Count)
system.mem_ctrls.dram.perBankWrBursts::14            0                       # Per bank write bursts (Count)
system.mem_ctrls.dram.perBankWrBursts::15            0                       # Per bank write bursts (Count)
system.mem_ctrls.dram.totQLat                 9296250                       # Total ticks spent queuing (Tick)
system.mem_ctrls.dram.totBusLat               4820000                       # Total ticks spent in databus transfers (Tick)
system.mem_ctrls.dram.totMemAccLat           27371250                       # Total ticks spent from burst creation until serviced by the DRAM (Tick)
system.mem_ctrls.dram.avgQLat                 9643.41                       # Average queueing delay per DRAM burst ((Tick/Count))
system.mem_ctrls.dram.avgBusLat               5000.00                       # Average bus latency per DRAM burst ((Tick/Count))
system.mem_ctrls.dram.avgMemAccLat           28393.41                       # Average memory access latency per DRAM burst ((Tick/Count))
system.mem_ctrls.dram.readRowHits                 779                       # Number of row buffer hits during reads (Count)
system.mem_ctrls.dram.writeRowHits                  0                       # Number of row buffer hits during writes (Count)
system.mem_ctrls.dram.readRowHitRate            80.81                       # Row buffer hit rate for reads (Ratio)
system.mem_ctrls.dram.writeRowHitRate             nan                       # Row buffer hit rate for writes (Ratio)
system.mem_ctrls.dram.bytesPerActivate::samples          178                       # Bytes accessed per row activation (Byte)
system.mem_ctrls.dram.bytesPerActivate::mean   337.617978                       # Bytes accessed per row activation (Byte)
system.mem_ctrls.dram.bytesPerActivate::gmean   217.471544                       # Bytes accessed per row activation (Byte)
system.mem_ctrls.dram.bytesPerActivate::stdev   312.333427                       # Bytes accessed per row activation (Byte)
system.mem_ctrls.dram.bytesPerActivate::0-127           46     25.84%     25.84% # Bytes accessed per row activation (Byte)
system.mem_ctrls.dram.bytesPerActivate::128-255           46     25.84%     51.69% # Bytes accessed per row activation (Byte)
system.mem_ctrls.dram.bytesPerActivate::256-383           27     15.17%     66.85% # Bytes accessed per row activation (Byte)
system.mem_ctrls.dram.bytesPerActivate::384-511           13      7.30%     74.16% # Bytes accessed per row activation (Byte)
system.mem_ctrls.dram.bytesPerActivate::512-639            8      4.49%     78.65% # Bytes accessed per row activation (Byte)
system.mem_ctrls.dram.bytesPerActivate::640-767           11      6.18%     84.83% # Bytes accessed per row activation (Byte)
system.mem_ctrls.dram.bytesPerActivate::768-895            8      4.49%     89.33% # Bytes accessed per row activation (Byte)
system.mem_ctrls.dram.bytesPerActivate::896-1023            1      0.56%     89.89% # Bytes accessed per row activation (Byte)
system.mem_ctrls.dram.bytesPerActivate::1024-1151           18     10.11%    100.00% # Bytes accessed per row activation (Byte)
system.mem_ctrls.dram.bytesPerActivate::total          178                       # Bytes accessed per row activation (Byte)
system.mem_ctrls.dram.bytesRead                 61696                       # Total bytes read (Byte)
system.mem_ctrls.dram.bytesWritten                  0                       # Total bytes written (Byte)
system.mem_ctrls.dram.avgRdBW                4.083530                       # Average DRAM read bandwidth in MiBytes/s ((Byte/Second))
system.mem_ctrls.dram.avgWrBW                       0                       # Average DRAM write bandwidth in MiBytes/s ((Byte/Second))
system.mem_ctrls.dram.peakBW                 12800.00                       # Theoretical peak bandwidth in MiByte/s ((Byte/Second))
system.mem_ctrls.dram.busUtil                    0.03                       # Data bus utilization in percentage (Ratio)
system.mem_ctrls.dram.busUtilRead                0.03                       # Data bus utilization in percentage for reads (Ratio)
system.mem_ctrls.dram.busUtilWrite               0.00                       # Data bus utilization in percentage for writes (Ratio)
system.mem_ctrls.dram.pageHitRate               80.81                       # Row buffer hit rate, read and write combined (Ratio)
system.mem_ctrls.dram.power_state.pwrStateResidencyTicks::UNDEFINED  15108497500                       # Cumulative time (in ticks) in various power states (Tick)
system.mem_ctrls.dram.rank0.actEnergy          706860                       # Energy for activate commands per rank (pJ) (Joule)
system.mem_ctrls.dram.rank0.preEnergy          360525                       # Energy for precharge commands per rank (pJ) (Joule)
system.mem_ctrls.dram.rank0.readEnergy        3734220                       # Energy for read commands per rank (pJ) (Joule)
system.mem_ctrls.dram.rank0.writeEnergy             0                       # Energy for write commands per rank (pJ) (Joule)
system.mem_ctrls.dram.rank0.refreshEnergy 1192401600.000000                       # Energy for refresh commands per rank (pJ) (Joule)
system.mem_ctrls.dram.rank0.actBackEnergy    236710170                       # Energy for active background per rank (pJ) (Joule)
system.mem_ctrls.dram.rank0.preBackEnergy   5602328160                       # Energy for precharge background per rank (pJ) (Joule)
system.mem_ctrls.dram.rank0.actPowerDownEnergy            0                       # Energy for active power-down per rank (pJ) (Joule)
system.mem_ctrls.dram.rank0.prePowerDownEnergy            0                       # Energy for precharge power-down per rank (pJ) (Joule)
system.mem_ctrls.dram.rank0.selfRefreshEnergy            0                       # Energy for self refresh per rank (pJ) (Joule)
system.mem_ctrls.dram.rank0.totalEnergy    7036241535                       # Total energy per rank (pJ) (Joule)
system.mem_ctrls.dram.rank0.averagePower   465.714181                       # Core power per rank (mW) (Watt)
system.mem_ctrls.dram.rank0.totalIdleTime            0                       # Total Idle time Per DRAM Rank (Tick)
system.mem_ctrls.dram.rank0.pwrStateTime::IDLE  14562623250                       # Time in different power states (Tick)
system.mem_ctrls.dram.rank0.pwrStateTime::REF    504400000                       # Time in different power states (Tick)
system.mem_ctrls.dram.rank0.pwrStateTime::SREF            0                       # Time in different power states (Tick)
system.mem_ctrls.dram.rank0.pwrStateTime::PRE_PDN            0                       # Time in different power states (Tick)
system.mem_ctrls.dram.rank0.pwrStateTime::ACT     41474250                       # Time in different power states (Tick)
system.mem_ctrls.dram.rank0.pwrStateTime::ACT_PDN            0                       # Time in different power states (Tick)
system.mem_ctrls.dram.rank1.actEnergy          614040                       # Energy for activate commands per rank (pJ) (Joule)
system.mem_ctrls.dram.rank1.preEnergy          314985                       # Energy for precharge commands per rank (pJ) (Joule)
system.mem_ctrls.dram.rank1.readEnergy        3148740                       # Energy for read commands per rank (pJ) (Joule)
system.mem_ctrls.dram.rank1.writeEnergy             0                       # Energy for write commands per rank (pJ) (Joule)
system.mem_ctrls.dram.rank1.refreshEnergy 1192401600.000000                       # Energy for refresh commands per rank (pJ) (Joule)
system.mem_ctrls.dram.rank1.actBackEnergy    277144830                       # Energy for active background per rank (pJ) (Joule)
system.mem_ctrls.dram.rank1.preBackEnergy   5568277920                       # Energy for precharge background per rank (pJ) (Joule)
system.mem_ctrls.dram.rank1.actPowerDownEnergy            0                       # Energy for active power-down per rank (pJ) (Joule)
system.mem_ctrls.dram.rank1.prePowerDownEnergy            0                       # Energy for precharge power-down per rank (pJ) (Joule)
system.mem_ctrls.dram.rank1.selfRefreshEnergy            0                       # Energy for self refresh per rank (pJ) (Joule)
system.mem_ctrls.dram.rank1.totalEnergy    7041902115                       # Total energy per rank (pJ) (Joule)
system.mem_ctrls.dram.rank1.averagePower   466.088843                       # Core power per rank (mW) (Watt)
system.mem_ctrls.dram.rank1.totalIdleTime            0                       # Total Idle time Per DRAM Rank (Tick)
system.mem_ctrls.dram.rank1.pwrStateTime::IDLE  14473740500                       # Time in different power states (Tick)
system.mem_ctrls.dram.rank1.pwrStateTime::REF    504400000                       # Time in different power states (Tick)
system.mem_ctrls.dram.rank1.pwrStateTime::SREF            0                       # Time in different power states (Tick)
system.mem_ctrls.dram.rank1.pwrStateTime::PRE_PDN            0                       # Time in different power states (Tick)
system.mem_ctrls.dram.rank1.pwrStateTime::ACT    130357000                       # Time in different power states (Tick)
system.mem_ctrls.dram.rank1.pwrStateTime::ACT_PDN            0                       # Time in different power states (Tick)
system.mem_ctrls.power_state.pwrStateResidencyTicks::UNDEFINED  15108497500                       # Cumulative time (in ticks) in various power states (Tick)
system.membus.transDist::ReadResp                 894                       # Transaction distribution (Count)
system.membus.transDist::ReadExReq                 70                       # Transaction distribution (Count)
system.membus.transDist::ReadExResp                70                       # Transaction distribution (Count)
system.membus.transDist::ReadSharedReq            894                       # Transaction distribution (Count)
system.membus.pktCount_system.l2.mem_side_port::system.mem_ctrls.port         1928                       # Packet count per connected requestor and responder (Count)
system.membus.pktCount::total                    1928                       # Packet count per connected requestor and responder (Count)
system.membus.pktSize_system.l2.mem_side_port::system.mem_ctrls.port        61696                       # Cumulative packet size per connected requestor and responder (Byte)
system.membus.pktSize::total                    61696                       # Cumulative packet size per connected requestor and responder (Byte)
system.membus.snoops                                0                       # Total snoops (Count)
system.membus.snoopTraffic                          0                       # Total snoop traffic (Byte)
system.membus.snoopFanout::samples                964                       # Request fanout histogram (Count)
system.membus.snoopFanout::mean                     0                       # Request fanout histogram (Count)
system.membus.snoopFanout::stdev                    0                       # Request fanout histogram (Count)
system.membus.snoopFanout::underflows               0      0.00%      0.00% # Request fanout histogram (Count)
system.membus.snoopFanout::0                      964    100.00%    100.00% # Request fanout histogram (Count)
system.membus.snoopFanout::1                        0      0.00%    100.00% # Request fanout histogram (Count)
system.membus.snoopFanout::overflows                0      0.00%    100.00% # Request fanout histogram (Count)
system.membus.snoopFanout::min_value                0                       # Request fanout histogram (Count)
system.membus.snoopFanout::max_value                0                       # Request fanout histogram (Count)
system.membus.snoopFanout::total                  964                       # Request fanout histogram (Count)
system.membus.power_state.pwrStateResidencyTicks::UNDEFINED  15108497500                       # Cumulative time (in ticks) in various power states (Tick)
system.membus.reqLayer0.occupancy             1165500                       # Layer occupancy (ticks) (Tick)
system.membus.reqLayer0.utilization               0.0                       # Layer utilization (Ratio)
system.membus.respLayer1.occupancy            5090500                       # Layer occupancy (ticks) (Tick)
system.membus.respLayer1.utilization              0.0                       # Layer utilization (Ratio)
system.membus.snoop_filter.totRequests            964                       # Total number of requests made to the snoop filter. (Count)
system.membus.snoop_filter.hitSingleRequests            0                       # Number of requests hitting in the snoop filter with a single holder of the requested data. (Count)
system.membus.snoop_filter.hitMultiRequests            0                       # Number of requests hitting in the snoop filter with multiple (>1) holders of the requested data. (Count)
system.membus.snoop_filter.totSnoops                0                       # Total number of snoops made to the snoop filter. (Count)
system.membus.snoop_filter.hitSingleSnoops            0                       # Number of snoops hitting in the snoop filter with a single holder of the requested data. (Count)
system.membus.snoop_filter.hitMultiSnoops            0                       # Number of snoops hitting in the snoop filter with multiple (>1) holders of the requested data. (Count)
system.tol2bus.transDist::ReadResp               1631                       # Transaction distribution (Count)
system.tol2bus.transDist::WritebackDirty            8                       # Transaction distribution (Count)
system.tol2bus.transDist::WritebackClean           61                       # Transaction distribution (Count)
system.tol2bus.transDist::CleanEvict              691                       # Transaction distribution (Count)
system.tol2bus.transDist::ReadExReq                70                       # Transaction distribution (Count)
system.tol2bus.transDist::ReadExResp               70                       # Transaction distribution (Count)
system.tol2bus.transDist::ReadCleanReq            634                       # Transaction distribution (Count)
system.tol2bus.transDist::ReadSharedReq           998                       # Transaction distribution (Count)
system.tol2bus.pktCount_system.cpu.icache.mem_side_port::system.l2.cpu_side_port         1328                       # Packet count per connected requestor and responder (Count)
system.tol2bus.pktCount_system.cpu.dcache.mem_side_port::system.l2.cpu_side_port         2835                       # Packet count per connected requestor and responder (Count)
system.tol2bus.pktCount::total                   4163                       # Packet count per connected requestor and responder (Count)
system.tol2bus.pktSize_system.cpu.icache.mem_side_port::system.l2.cpu_side_port        44416                       # Cumulative packet size per connected requestor and responder (Byte)
system.tol2bus.pktSize_system.cpu.dcache.mem_side_port::system.l2.cpu_side_port        68864                       # Cumulative packet size per connected requestor and responder (Byte)
system.tol2bus.pktSize::total                  113280                       # Cumulative packet size per connected requestor and responder (Byte)
system.tol2bus.snoops                               0                       # Total snoops (Count)
system.tol2bus.snoopTraffic                         0                       # Total snoop traffic (Byte)
system.tol2bus.snoopFanout::samples              1702                       # Request fanout histogram (Count)
system.tol2bus.snoopFanout::mean             0.036428                       # Request fanout histogram (Count)
system.tol2bus.snoopFanout::stdev            0.187407                       # Request fanout histogram (Count)
system.tol2bus.snoopFanout::underflows              0      0.00%      0.00% # Request fanout histogram (Count)
system.tol2bus.snoopFanout::0                    1640     96.36%     96.36% # Request fanout histogram (Count)
system.tol2bus.snoopFanout::1                      62      3.64%    100.00% # Request fanout histogram (Count)
system.tol2bus.snoopFanout::2                       0      0.00%    100.00% # Request fanout histogram (Count)
system.tol2bus.snoopFanout::overflows               0      0.00%    100.00% # Request fanout histogram (Count)
system.tol2bus.snoopFanout::min_value               0                       # Request fanout histogram (Count)
system.tol2bus.snoopFanout::max_value               1                       # Request fanout histogram (Count)
system.tol2bus.snoopFanout::total                1702                       # Request fanout histogram (Count)
system.tol2bus.power_state.pwrStateResidencyTicks::UNDEFINED  15108497500                       # Cumulative time (in ticks) in various power states (Tick)
system.tol2bus.reqLayer0.occupancy            1300000                       # Layer occupancy (ticks) (Tick)
system.tol2bus.reqLayer0.utilization              0.0                       # Layer utilization (Ratio)
system.tol2bus.respLayer0.occupancy            949500                       # Layer occupancy (ticks) (Tick)
system.tol2bus.respLayer0.utilization             0.0                       # Layer utilization (Ratio)
system.tol2bus.respLayer1.occupancy           1605493                       # Layer occupancy (ticks) (Tick)
system.tol2bus.respLayer1.utilization             0.0                       # Layer utilization (Ratio)
system.tol2bus.snoop_filter.totRequests          2462                       # Total number of requests made to the snoop filter. (Count)
system.tol2bus.snoop_filter.hitSingleRequests          810                       # Number of requests hitting in the snoop filter with a single holder of the requested data. (Count)
system.tol2bus.snoop_filter.hitMultiRequests           12                       # Number of requests hitting in the snoop filter with multiple (>1) holders of the requested data. (Count)
system.tol2bus.snoop_filter.totSnoops               0                       # Total number of snoops made to the snoop filter. (Count)
system.tol2bus.snoop_filter.hitSingleSnoops            0                       # Number of snoops hitting in the snoop filter with a single holder of the requested data. (Count)
system.tol2bus.snoop_filter.hitMultiSnoops            0                       # Number of snoops hitting in the snoop filter with multiple (>1) holders of the requested data. (Count)
system.voltage_domain.voltage                       1                       # Voltage in Volts (Volt)
system.workload.inst.arm                            0                       # number of arm instructions executed (Count)
system.workload.inst.quiesce                        0                       # number of quiesce instructions executed (Count)

---------- End Simulation Statistics   ----------
